%chk=trimer-opt-8_abasic.chk
%nprocshared=8
%mem=248MW
#p wb97xd/cc-pvtz geom=connectivity scf=maxcycle=9999

Title Card Required

-6 1
 P      -7.73129800   -6.17815100    2.08664100
 O      -9.04795100   -6.01500300    1.35530000
 O      -6.47417700   -6.59645300    1.36249800
 O      -7.32411800   -4.78520900    2.86538300
 C      -8.30739300   -3.98673900    3.55147700
 C      -8.40806400   -2.58733800    2.95728300
 O      -7.16985400   -1.84282100    3.10857400
 C      -8.73584900   -2.55129800    1.45917700
 O      -9.59773100   -1.40251700    1.24614000
 C      -7.35803000   -2.44600900    0.80439200
 C      -6.49919000   -1.70940200    1.83537500
 N      -5.12776500   -2.20517300    1.95418800
 C      -4.67773400   -3.51499300    1.86319400
 N      -3.43222800   -3.66953500    2.24700300
 C      -3.02288900   -2.39231300    2.59999200
 C      -1.79374600   -1.93927200    3.14908100
 O      -0.80720200   -2.63169400    3.48704600
 N      -1.77197500   -0.54564200    3.31019700
 C      -2.84107600    0.28992600    3.06992100
 N      -2.64972200    1.60199300    3.33670200
 N      -4.03128400   -0.14301700    2.66069200
 C      -4.05547100   -1.46763800    2.41940200
 H      -9.30183400   -4.44871700    3.50591600
 H      -8.00023700   -3.91091200    4.60121100
 H      -9.17891400   -2.05634400    3.52787900
 H      -6.41339100   -0.64494400    1.60843800
 H      -6.99130400   -3.45536900    0.62196200
 H      -7.38418000   -1.91625500   -0.14302500
 H      -9.26311400   -3.44987100    1.13295200
 H      -5.31551700   -4.31110300    1.51384500
 H      -0.86097800   -0.12695100    3.58978600
 H      -3.32147200    2.24026500    2.93506700
 O      -7.93777900   -7.24944100    3.33010500
 H      -1.69810900    1.94927200    3.49237900
 H      -8.84188900   -7.18508600    3.67296400
 P     -10.02605600   -0.87804600   -0.25959000
 O     -11.37782800   -0.22301300   -0.08186600
 O      -9.80732600   -1.94918800   -1.30279300
 O      -8.88135000    0.27569500   -0.55557800
 C      -8.84556000    1.40889100    0.34158800
 C      -7.71216800    2.34945300   -0.02550200
 O      -6.43707400    1.71533200    0.22684000
 C      -7.70579500    2.81546600   -1.49591700
 O      -7.42816600    4.24272200   -1.48265500
 C      -6.61105600    1.95245300   -2.12521500
 C      -5.61441000    1.75031000   -0.98383300
 H      -9.79277200    1.96037400    0.28439400
 H      -8.69789900    1.05833000    1.37103700
 H      -7.81119900    3.22404600    0.63153800
 H      -4.92468660    2.56728821   -0.94226094
 H      -7.07180000    1.00812700   -2.42419800
 H      -6.14504700    2.40867200   -2.99940300
 H      -8.67455100    2.65995400   -1.97837600
 P      -7.10165900    5.08707800   -2.86121200
 O      -7.54654000    6.50479800   -2.58083800
 O      -7.57736500    4.35017100   -4.09098700
 O      -5.45167300    5.01587400   -2.91443200
 C      -4.71697800    5.66998800   -1.85609400
 C      -3.25362300    5.81007800   -2.23134300
 O      -2.58312000    4.52237500   -2.16837100
 C      -3.00536700    6.36554300   -3.65419600
 O      -1.84849600    7.22368400   -3.69707600
 C      -2.69229600    5.10648800   -4.45388900
 C      -1.93300800    4.26714800   -3.42735000
 N      -1.92855600    2.84038100   -3.67168200
 C      -3.01530000    2.01722700   -3.92854800
 N      -2.69401300    0.74739100   -4.01316500
 C      -1.32752000    0.71913600   -3.76578900
 C      -0.41806800   -0.37119000   -3.65217700
 O      -0.66536500   -1.59435300   -3.75083700
 N       0.89233000    0.06183800   -3.38830300
 C       1.28284800    1.37648000   -3.25765900
 N       2.60625100    1.60805900   -3.12616200
 N       0.43024500    2.39716600   -3.31441000
 C      -0.83494600    2.00948400   -3.54984400
 H      -5.12123200    6.67582200   -1.68524900
 H      -4.80825300    5.08610700   -0.93095800
 H      -2.79205100    6.47724000   -1.49101400
 H      -0.88286500    4.56990400   -3.37039300
 H      -3.62345700    4.60715200   -4.73130400
 H      -2.09619900    5.30878500   -5.34693000
 H      -3.88674400    6.89707600   -4.02934200
 H      -4.00987800    2.42617800   -4.04079500
 H       1.60577700   -0.68061900   -3.22769400
 H       2.85323400    2.49620900   -2.71314400
 H       3.23883000    0.82316700   -2.93533700
 O       8.57212000   -7.90972900   -2.00991800
 P       8.16355500   -6.56894700   -1.13207200
 O       9.38651800   -6.07127400   -0.39061400
 O       6.88170700   -6.90435400   -0.40854100
 O       7.72065700   -5.49121100   -2.29770000
 C       8.70158500   -4.78307500   -3.08182300
 C       8.58699900   -3.27549500   -2.88824300
 O       7.27730400   -2.80851400   -3.31076900
 C       8.76185800   -2.79633400   -1.43852700
 O       9.42699700   -1.50390600   -1.49202800
 C       7.32463300   -2.70341300   -0.93812000
 C       6.57890900   -2.23028900   -2.18579300
 N       5.15761300   -2.59566500   -2.27272400
 C       4.19653200   -1.61570300   -2.63904300
 O       4.56909100   -0.44586200   -2.86426400
 N       2.89827700   -1.98577900   -2.75523100
 C       2.50986400   -3.24306000   -2.48095700
 N       1.21218200   -3.54224100   -2.60864600
 C       3.45414600   -4.24706400   -2.09709400
 C       4.75808400   -3.88117800   -2.02048300
 H       9.72241700   -5.09022500   -2.82196300
 H       8.51783800   -5.02293600   -4.13573300
 H       9.34204600   -2.80875300   -3.53246800
 H       6.61728500   -1.14380300   -2.26246400
 H       7.00085100   -3.69477100   -0.61735300
 H       7.22138300   -2.01162100   -0.10721800
 H       9.36366600   -3.48716300   -0.84519600
 H       5.53993800   -4.58687600   -1.77022500
 H       3.14225500   -5.26259300   -1.88739800
 H       0.54040600   -2.83240800   -2.91378500
 H       0.88103400   -4.44856100   -2.31362000
 P       9.75085800   -0.64560300   -0.11486200
 O      11.00653500    0.13922100   -0.42007100
 O       9.64918600   -1.53036400    1.10458100
 O       8.46127100    0.38554000   -0.01484500
 C       8.34477200    1.43256300   -1.00295400
 C       7.23358300    2.40527000   -0.64283000
 O       5.93546500    1.79095300   -0.83588800
 C       7.27418900    2.93559000    0.80643600
 O       7.10519100    4.37691000    0.76469200
 C       6.11020300    2.22350400    1.49798500
 C       5.14245600    1.91340800    0.35299600
 H       9.28239200    1.99927000   -1.05934800
 H       8.13541500    0.99091600   -1.98585800
 H       7.32065400    3.24810800   -1.33999900
 H       4.43811128    2.71130122    0.24270124
 H       6.47500600    1.30983400    1.97250600
 H       5.64246200    2.85266400    2.25359100
 H       8.22805400    2.70693300    1.28580200
 P       7.35469200    5.27047900    2.13775300
 O       7.62758600    6.67319100    1.64834400
 O       8.30230300    4.55581200    3.07171600
 O       5.88516300    5.21494900    2.89342600
 C       4.80138000    5.98510000    2.32855300
 C       3.53435100    5.79960700    3.13978200
 O       2.98028500    4.48360300    2.89346500
 C       3.69217400    5.93847200    4.67643900
 O       2.69417100    6.87334400    5.13492700
 C       3.43114400    4.51677900    5.18946800
 C       2.44952000    3.99765700    4.13897100
 N       2.28462900    2.54858000    4.04951600
 C       0.98578400    1.97641700    3.93824700
 O      -0.01715200    2.72051300    3.91071200
 N       0.87905800    0.62651400    3.89216300
 C       1.97311600   -0.15191500    3.82001200
 N       1.80498200   -1.48068600    3.81971700
 C       3.28802500    0.40946200    3.77386700
 C       3.39051800    1.75499300    3.89655300
 H       2.78086700    6.91359500    6.09753300
 H       5.06215100    7.05044200    2.33536300
 H       4.61676900    5.67211200    1.29243900
 H       2.81857900    6.55620100    2.78944500
 H       1.45606700    4.41582500    4.31319000
 H       4.36133700    3.94133500    5.17307300
 H       3.01208200    4.51283900    6.19943900
 H       4.69057800    6.29502700    4.94959500
 H       4.34426600    2.26506400    3.88169900
 H       4.16344300   -0.21395500    3.64259300
 H       0.86211800   -1.86810500    3.69468100
 H       2.59372400   -2.05703400    3.56325500
 H      -2.02341500    7.95911700   -3.09339400
 H       9.47927500   -7.82376000   -2.34022900
 H      -5.09099097    0.82505067   -1.10560199
 H       4.62858371    0.99504957    0.54652394

 1 2 2.0 3 2.0 4 1.0 33 1.0
 2
 3
 4 5 1.0
 5 6 1.0 23 1.0 24 1.0
 6 7 1.0 8 1.0 25 1.0
 7 11 1.0
 8 9 1.0 10 1.0 29 1.0
 9 36 1.0
 10 11 1.0 27 1.0 28 1.0
 11 12 1.0 26 1.0
 12 13 1.0 22 1.0
 13 14 2.0 30 1.0
 14 15 1.0
 15 16 1.5 22 1.5
 16 17 2.0 18 1.0
 17
 18 19 1.5 31 1.0
 19 20 1.5 21 1.5
 20 32 1.0 34 1.0
 21 22 1.5
 22
 23
 24
 25
 26
 27
 28
 29
 30
 31
 32
 33 35 1.0
 34
 35
 36 37 2.0 38 2.0 39 1.0
 37
 38
 39 40 1.0
 40 41 1.0 47 1.0 48 1.0
 41 42 1.0 43 1.0 49 1.0
 42 46 1.0
 43 44 1.0 45 1.0 53 1.0
 44 54 1.0
 45 46 1.0 51 1.0 52 1.0
 46 50 1.0 169 1.0
 47
 48
 49
 50
 51
 52
 53
 54 55 2.0 56 2.0 57 1.0
 55
 56
 57 58 1.0
 58 59 1.0 76 1.0 77 1.0
 59 60 1.0 61 1.0 78 1.0
 60 64 1.0
 61 62 1.0 63 1.0 82 1.0
 62 167 1.0
 63 64 1.0 80 1.0 81 1.0
 64 65 1.0 79 1.0
 65 66 1.0 75 1.5
 66 67 2.0 83 1.0
 67 68 1.0
 68 69 1.5 75 1.5
 69 70 2.0 71 1.0
 70
 71 72 1.5 84 1.0
 72 73 1.5 74 1.5
 73 85 1.0 86 1.0
 74 75 1.5
 75
 76
 77
 78
 79
 80
 81
 82
 83
 84
 85
 86
 87 88 1.0 168 1.0
 88 89 2.0 90 2.0 91 1.0
 89
 90
 91 92 1.0
 92 93 1.0 107 1.0 108 1.0
 93 94 1.0 95 1.0 109 1.0
 94 98 1.0
 95 96 1.0 97 1.0 113 1.0
 96 118 1.0
 97 98 1.0 111 1.0 112 1.0
 98 99 1.0 110 1.0
 99 100 1.0 106 1.5
 100 101 2.0 102 1.5
 101
 102 103 1.5
 103 104 1.5 105 1.5
 104 116 1.0 117 1.0
 105 106 2.0 115 1.0
 106 114 1.0
 107
 108
 109
 110
 111
 112
 113
 114
 115
 116
 117
 118 119 2.0 120 2.0 121 1.0
 119
 120
 121 122 1.0
 122 123 1.0 129 1.0 130 1.0
 123 124 1.0 125 1.0 131 1.0
 124 128 1.0
 125 126 1.0 127 1.0 135 1.0
 126 136 1.0
 127 128 1.0 133 1.0 134 1.0
 128 132 1.0 170 1.0
 129
 130
 131
 132
 133
 134
 135
 136 137 2.0 138 2.0 139 1.0
 137
 138
 139 140 1.0
 140 141 1.0 156 1.0 157 1.0
 141 142 1.0 143 1.0 158 1.0
 142 146 1.0
 143 144 1.0 145 1.0 162 1.0
 144 155 1.0
 145 146 1.0 160 1.0 161 1.0
 146 147 1.0 159 1.0
 147 148 1.0 154 1.5
 148 149 2.0 150 1.5
 149
 150 151 1.5
 151 152 1.5 153 1.5
 152 165 1.0 166 1.0
 153 154 2.0 164 1.0
 154 163 1.0
 155
 156
 157
 158
 159
 160
 161
 162
 163
 164
 165
 166
 167
 168
 169
 170

